Version 4.1
SHEET 1 932 1384
WIRE -832 176 -1120 176
WIRE 544 176 -816 176
WIRE 256 288 -160 288
WIRE 432 288 256 288
WIRE -1120 336 -1120 176
WIRE -832 336 -832 176
WIRE -832 336 -1120 336
WIRE -160 368 -160 288
WIRE -96 368 -160 368
WIRE 64 368 0 368
WIRE -672 384 -688 384
WIRE 256 384 256 288
WIRE -416 400 -544 400
WIRE -272 400 -336 400
WIRE -96 400 -272 400
WIRE -672 416 -768 416
WIRE -480 432 -544 432
WIRE -272 432 -272 400
WIRE -96 432 -160 432
WIRE 432 448 432 288
WIRE -160 480 -160 432
WIRE 64 480 64 368
WIRE 64 480 -160 480
WIRE -768 544 -768 416
WIRE -480 544 -480 512
WIRE -480 544 -768 544
WIRE -272 544 -272 512
WIRE -160 544 -160 480
WIRE -160 544 -272 544
WIRE -128 544 -160 544
WIRE -16 544 -48 544
WIRE 80 544 -16 544
WIRE 256 544 256 448
WIRE 256 544 160 544
WIRE -480 592 -480 544
WIRE -272 592 -272 544
WIRE -160 592 -160 544
WIRE -16 592 -16 544
WIRE 256 592 256 544
WIRE -272 720 -272 656
WIRE 256 720 256 656
WIRE 256 720 -272 720
WIRE 432 720 432 528
WIRE 432 720 256 720
WIRE 432 752 432 720
WIRE -816 800 -816 176
WIRE 544 800 544 176
WIRE 544 800 -816 800
WIRE 544 816 -816 816
WIRE -64 864 -368 864
WIRE 288 864 -64 864
WIRE -64 880 -64 864
WIRE -192 960 -304 960
WIRE -64 960 -112 960
WIRE 288 976 288 864
WIRE -304 1056 -304 960
WIRE -304 1056 -560 1056
WIRE -256 1056 -304 1056
WIRE -64 1072 -64 960
WIRE -64 1072 -128 1072
WIRE -368 1088 -368 864
WIRE -256 1088 -368 1088
WIRE 176 1104 -128 1104
WIRE -256 1120 -368 1120
WIRE -64 1120 -64 1072
WIRE -368 1232 -368 1120
WIRE -64 1232 -64 1200
WIRE -64 1232 -368 1232
WIRE -64 1248 -64 1232
WIRE 288 1248 288 1056
WIRE -816 1328 -816 816
WIRE 544 1328 544 816
WIRE 544 1328 -816 1328
FLAG -16 592 VSSS
FLAG -688 384 PMW
IOPIN -688 384 In
FLAG 432 752 0
FLAG 288 1248 VSSS
FLAG -64 1248 VSSS
FLAG 176 1104 sense
IOPIN 176 1104 In
FLAG -560 1056 PMW
IOPIN -560 1056 Out
FLAG -160 592 sense
IOPIN -160 592 Out
FLAG -480 592 VSSS
SYMBOL voltage 432 432 R0
WINDOW 123 0 0 Left 0
WINDOW 39 0 0 Left 0
SYMATTR InstName V1
SYMATTR Value 600
SYMBOL ind 64 560 R270
WINDOW 0 32 56 VTop 2
WINDOW 3 5 56 VBottom 2
SYMATTR InstName L1
SYMATTR Value 2mH
SYMATTR SpiceLine Rser=150m
SYMBOL cap 272 592 M0
SYMATTR InstName C1
SYMATTR Value 240µf
SYMBOL components\\fet\\E3M0160120K -48 400 R0
WINDOW 0 -34 -80 Bottom 2
WINDOW 3 34 -85 Top 2
SYMATTR InstName U1
SYMBOL voltage -480 416 R0
WINDOW 123 0 0 Left 0
WINDOW 39 0 0 Left 0
SYMATTR InstName V2
SYMATTR Value 15
SYMBOL res -288 416 R0
SYMATTR InstName R6
SYMATTR Value 100k
SYMBOL res -320 384 R90
WINDOW 0 0 56 VBottom 2
WINDOW 3 32 56 VTop 2
SYMATTR InstName R2
SYMATTR Value 10
SYMBOL components\\driver\\UCC27517 -608 400 R0
WINDOW 0 -51 -79 Bottom 2
WINDOW 3 -5 -86 Top 2
SYMATTR InstName U2
SYMBOL res -144 560 R270
WINDOW 0 32 56 VTop 2
WINDOW 3 0 56 VBottom 2
SYMATTR InstName R3
SYMATTR Value 5
SYMBOL components\\comparator\\TLV7011 -192 1088 M0
WINDOW 0 52 -75 Bottom 2
WINDOW 3 17 -82 Top 2
SYMATTR InstName U3
SYMBOL res -80 864 R0
SYMATTR InstName R4
SYMATTR Value 15k
SYMBOL voltage 288 960 R0
WINDOW 123 0 0 Left 0
WINDOW 39 0 0 Left 0
SYMATTR InstName V3
SYMATTR Value 5
SYMBOL res -80 1104 R0
SYMATTR InstName R5
SYMATTR Value 6k
SYMBOL res -96 944 R90
WINDOW 0 0 56 VBottom 2
WINDOW 3 32 56 VTop 2
SYMATTR InstName R1
SYMATTR Value 10k
SYMBOL diode 272 448 R180
WINDOW 0 24 64 Left 2
WINDOW 3 24 0 Left 2
SYMATTR InstName D1
SYMBOL diode -256 656 R180
WINDOW 0 24 64 Left 2
WINDOW 3 24 0 Left 2
SYMATTR InstName D2
TEXT -800 200 Left 2 ;Pre-charger driver (floating gnd | VSSS)
TEXT -800 840 Left 2 ;Constant Current | Bang Bang Controller
TEXT -1096 208 Left 2 !.tran 0 1s 0 10n uic\n.options reltol=0.01\n.options abstol=1n\n.options vntol=1m
