Version 4.1
SHEET 1 880 948
WIRE 432 288 -80 288
WIRE -80 352 -80 288
WIRE 432 480 432 288
WIRE -80 560 -80 448
WIRE 0 560 -80 560
WIRE 144 560 80 560
WIRE 272 560 224 560
WIRE -80 656 -80 560
WIRE 272 672 272 560
WIRE -80 832 -80 720
WIRE 272 832 272 736
WIRE 272 832 -80 832
WIRE 432 832 432 560
WIRE 432 832 272 832
WIRE 272 864 272 832
FLAG 272 864 0
SYMBOL voltage 432 464 R0
WINDOW 123 0 0 Left 0
WINDOW 39 0 0 Left 0
SYMATTR InstName V1
SYMATTR Value 600
SYMBOL schottky -96 720 M180
WINDOW 0 37 40 Left 2
WINDOW 3 38 15 Left 2
SYMATTR InstName D1
SYMATTR Value RFN1LAM7S
SYMBOL res 96 544 R90
WINDOW 0 0 56 VBottom 2
WINDOW 3 32 56 VTop 2
SYMATTR InstName R1
SYMATTR Value 4.7k
SYMBOL ind 128 576 R270
WINDOW 0 32 56 VTop 2
WINDOW 3 5 56 VBottom 2
SYMATTR InstName L1
SYMATTR Value 10mH
SYMBOL cap 256 672 R0
SYMATTR InstName C1
SYMATTR Value 200µf
TEXT -808 856 Left 2 !.tran 1s
TEXT -808 880 Left 2 !.model SW SW(Vt=5 Vh=0.1 Ron=0.1 Roff=1Meg)
