Version 4.1
SHEET 1 880 1128
WIRE -288 256 -640 256
WIRE 48 256 -128 256
WIRE 272 288 -160 288
WIRE 432 288 272 288
WIRE -288 368 -288 256
WIRE -288 368 -432 368
WIRE -160 368 -160 288
WIRE -80 368 -160 368
WIRE 48 368 48 256
WIRE 48 368 16 368
WIRE -560 384 -688 384
WIRE 432 384 432 288
WIRE -224 400 -432 400
WIRE -80 400 -224 400
WIRE -640 416 -640 256
WIRE -560 416 -640 416
WIRE 272 416 272 288
WIRE -352 432 -432 432
WIRE -224 432 -224 400
WIRE -128 432 -128 256
WIRE -80 432 -128 432
WIRE -352 448 -352 432
WIRE -352 560 -352 528
WIRE -288 560 -288 368
WIRE -288 560 -352 560
WIRE -224 560 -224 512
WIRE -128 560 -128 432
WIRE -128 560 -224 560
WIRE -48 560 -128 560
WIRE 112 560 32 560
WIRE 144 560 112 560
WIRE 272 560 272 480
WIRE 272 560 224 560
WIRE -288 576 -288 560
WIRE 272 576 272 560
WIRE 272 656 272 640
WIRE 432 656 432 464
WIRE 432 656 272 656
WIRE 432 672 432 656
WIRE -384 688 -480 688
WIRE -176 688 -304 688
WIRE -288 752 -384 752
WIRE -384 768 -384 752
WIRE -384 784 -384 768
WIRE -176 784 -176 688
WIRE -176 784 -352 784
WIRE -128 784 -128 560
WIRE -128 784 -176 784
WIRE -80 784 -128 784
WIRE -16 784 -80 784
WIRE 112 784 112 560
WIRE 112 784 64 784
WIRE -688 800 -688 384
WIRE -608 800 -688 800
WIRE -480 800 -480 688
WIRE -480 800 -528 800
WIRE -416 800 -480 800
WIRE 112 816 112 784
WIRE 112 816 -352 816
WIRE -384 848 -384 832
WIRE -256 848 -384 848
WIRE -80 848 -80 784
WIRE -80 848 -176 848
WIRE -688 864 -688 800
WIRE -384 864 -384 848
WIRE -128 880 -128 784
WIRE 304 880 -128 880
WIRE -688 976 -688 928
WIRE -384 976 -384 944
WIRE -384 976 -688 976
WIRE -288 976 -288 752
WIRE -288 976 -384 976
WIRE 112 976 112 816
WIRE 304 976 112 976
WIRE 112 992 112 976
WIRE -288 1008 -288 976
FLAG 112 992 vss
IOPIN 112 992 Out
FLAG -288 576 vss
IOPIN -288 576 Out
FLAG 432 672 0
FLAG -288 1008 vss
IOPIN -288 1008 Out
FLAG 304 880 i_sense+
IOPIN 304 880 Out
FLAG 304 976 i_sense-
IOPIN 304 976 Out
SYMBOL voltage 432 368 R0
WINDOW 123 0 0 Left 0
WINDOW 39 0 0 Left 0
SYMATTR InstName V1
SYMATTR Value 600
SYMBOL res 48 544 R90
WINDOW 0 -5 56 VBottom 2
WINDOW 3 32 56 VTop 2
SYMATTR InstName R1
SYMATTR Value 400
SYMBOL ind 128 576 R270
WINDOW 0 32 56 VTop 2
WINDOW 3 5 56 VBottom 2
SYMATTR InstName L1
SYMATTR Value 1mh
SYMBOL cap 256 576 R0
SYMATTR InstName C1
SYMATTR Value 200µf
SYMBOL components\\fet\\E3M0160120K -32 400 R0
SYMATTR InstName U1
SYMBOL voltage -352 432 R0
WINDOW 123 0 0 Left 0
WINDOW 39 0 0 Left 0
SYMATTR InstName V2
SYMATTR Value 15
SYMBOL components\\driver\\UCC27517_TRANS -496 400 R0
SYMATTR InstName U2
SYMBOL res 80 768 R90
WINDOW 0 3 17 VBottom 2
WINDOW 3 -25 69 VTop 2
SYMATTR InstName R3
SYMATTR Value 2.37k
SYMBOL res -288 672 R90
WINDOW 0 0 56 VBottom 2
WINDOW 3 32 56 VTop 2
SYMATTR InstName R4
SYMATTR Value 10k
SYMBOL res -512 784 R90
WINDOW 0 0 56 VBottom 2
WINDOW 3 32 56 VTop 2
SYMATTR InstName R5
SYMATTR Value 200
SYMBOL cap -704 864 R0
SYMATTR InstName C2
SYMATTR Value 10nf
SYMBOL OpAmps\\RH1814 -384 800 R180
WINDOW 3 15 -53 Left 2
SYMATTR InstName U3
SYMBOL voltage -384 848 R0
WINDOW 123 0 0 Left 0
WINDOW 39 0 0 Left 0
SYMATTR InstName V3
SYMATTR Value 5
SYMBOL res -160 832 R90
WINDOW 0 59 17 VBottom 2
WINDOW 3 32 68 VTop 2
SYMATTR InstName R2
SYMATTR Value 200K
SYMBOL diode 288 480 R180
WINDOW 0 24 64 Left 2
WINDOW 3 24 0 Left 2
SYMATTR InstName D1
SYMATTR Value 1N4007
SYMBOL res -240 416 R0
SYMATTR InstName R6
SYMATTR Value 100k
TEXT -1064 376 Left 2 !.tran 1s
TEXT -1064 400 Left 2 !.options method=gear\n.options abstol=1n \n.options reltol=0.01 \n.options vntol=1m \n.options trtol=7
TEXT -656 544 Left 1 ;Use transformer for 15V\n(vdd) into ucc27517. \n*ENA on transformer to enable precharger
TEXT 136 920 Left 1 ;Use a Op-amp to measure current than use \nOptocoupler to 3.3v given reference gnd @ source
