Version 4.1
SHEET 1 932 1300
WIRE -848 176 -1120 176
WIRE 544 176 -816 176
WIRE 432 288 -160 288
WIRE -160 368 -160 288
WIRE -96 368 -160 368
WIRE 64 368 0 368
WIRE -672 384 -688 384
WIRE 432 384 432 288
WIRE -1120 400 -1120 176
WIRE -848 400 -848 176
WIRE -848 400 -1120 400
WIRE -432 400 -544 400
WIRE -272 400 -352 400
WIRE -96 400 -272 400
WIRE -672 416 -768 416
WIRE -496 432 -544 432
WIRE -272 432 -272 400
WIRE -96 432 -160 432
WIRE -160 480 -160 432
WIRE 64 480 64 368
WIRE 64 480 -160 480
WIRE -768 544 -768 416
WIRE -496 544 -496 512
WIRE -496 544 -768 544
WIRE -272 544 -272 512
WIRE -272 544 -496 544
WIRE -160 544 -160 480
WIRE -160 544 -272 544
WIRE -80 544 -160 544
WIRE -48 544 -80 544
WIRE 64 544 32 544
WIRE 112 544 64 544
WIRE 256 544 192 544
WIRE 256 560 256 544
WIRE -160 592 -160 544
WIRE -80 592 -80 544
WIRE 64 592 64 544
WIRE 256 656 256 640
WIRE 256 752 256 720
WIRE 432 752 432 464
WIRE 432 752 256 752
WIRE 432 768 432 752
WIRE -816 800 -816 176
WIRE 544 800 544 176
WIRE 544 800 -816 800
WIRE 544 816 -816 816
WIRE -816 1296 -816 816
WIRE 544 1296 544 816
WIRE 544 1296 -816 1296
FLAG -160 592 VSSS
FLAG -688 384 PMW
IOPIN -688 384 In
FLAG -80 592 in+
IOPIN -80 592 Out
FLAG 64 592 in-
IOPIN 64 592 Out
FLAG 432 768 0
SYMBOL voltage 432 368 R0
WINDOW 123 0 0 Left 0
WINDOW 39 0 0 Left 0
SYMATTR InstName V1
SYMATTR Value 600
SYMBOL res 208 528 R90
WINDOW 0 -5 56 VBottom 2
WINDOW 3 39 58 VTop 2
SYMATTR InstName R1
SYMATTR Value 600
SYMBOL ind 240 544 R0
SYMATTR InstName L1
SYMATTR Value 750µH
SYMATTR SpiceLine Rser=150m
SYMBOL cap 272 656 M0
SYMATTR InstName C1
SYMATTR Value 200µf
SYMBOL components\\fet\\E3M0160120K -48 400 R0
WINDOW 0 -34 -80 Bottom 2
WINDOW 3 34 -85 Top 2
SYMATTR InstName U1
SYMBOL voltage -496 416 R0
WINDOW 123 0 0 Left 0
WINDOW 39 0 0 Left 0
SYMATTR InstName V2
SYMATTR Value 15
SYMBOL res -288 416 R0
SYMATTR InstName R6
SYMATTR Value 100k
SYMBOL res -336 384 R90
WINDOW 0 0 56 VBottom 2
WINDOW 3 32 56 VTop 2
SYMATTR InstName R2
SYMATTR Value 10
SYMBOL components\\driver\\UCC27517 -608 400 R0
WINDOW 0 -51 -79 Bottom 2
WINDOW 3 -5 -86 Top 2
SYMATTR InstName U2
SYMBOL res -64 560 R270
WINDOW 0 32 56 VTop 2
WINDOW 3 0 56 VBottom 2
SYMATTR InstName R3
SYMATTR Value 0.1
SYMBOL components\\comparator\\TLV7011 -160 1056 M0
SYMATTR InstName U3
TEXT -1096 200 Left 2 !.tran 0 1s 0 100n uic
TEXT -800 200 Left 2 ;Pre-charger driver (floating gnd | VSSS)
TEXT -800 840 Left 2 ;Constant Current | Bang Bang Controller
